/*--------------------------------*- C++ -*----------------------------------*\
| =========                 |                                                 |
| \\      /  F ield         | OpenFOAM: The Open Source CFD Toolbox           |
|  \\    /   O peration     | Version:  1.4.1                                 |
|   \\  /    A nd           | Web:      http://www.openfoam.org               |
|    \\/     M anipulation  |                                                 |
\*---------------------------------------------------------------------------*/

// FoamX Case Dictionary.

FoamFile
{
    version         2.0;
    format          ascii;

    root            "/home/dc/OpenFOAM/dc-1.4.1/run/validation";
    case            "sandia_propane_jet_simpleFoam_axis";
    instance        "system";
    local           "";

    class           dictionary;
    object          decomposeParDict;
}

// * * * * * * * * * * * * * * * * * * * * * * * * * * * * * * * * * * * * * //

numberOfSubdomains 2;

method          metis;

simpleCoeffs
{
    n               (3 1 1);
    delta           0.001;
}

hierarchicalCoeffs
{
    n               (1 1 1);
    delta           0.001;
    order           xyz;
}

manualCoeffs
{
    dataFile        "";
}


// ************************************************************************* //
