ELEMENTS
 H   O    C   N
END
SPECIES 
O2 	H2O 	CO2 	N2 	CH4
END
REACTIONS
CH4 + 2O2 <=> CO2 + 2H2O	3E+13  0  4.7E+4
	FORD	/ CH4	0.7 /
	FORD	/ O2 	0.8 /
END