/*--------------------------------*- C++ -*----------------------------------*\
| =========                 |                                                 |
| \\      /  F ield         | OpenFOAM: The Open Source CFD Toolbox           |
|  \\    /   O peration     | Version:  2.3.0                                 |
|   \\  /    A nd           | Web:      www.OpenFOAM.org                      |
|    \\/     M anipulation  |                                                 |
\*---------------------------------------------------------------------------*/
FoamFile
{
    version     2.0;
    format      ascii;
    class       dictionary;
    object      collapseDict;
}
// * * * * * * * * * * * * * * * * * * * * * * * * * * * * * * * * * * * * * //

collapseEdgesCoeffs
{
    // Edges shorter than this absolute value will be merged
    minimumEdgeLength   1e-9;

    // The maximum angle between two edges that share a point attached to
    // no other edges
    maximumMergeAngle   180;
}


// ************************************************************************* //
