/*--------------------------------*- C++ -*----------------------------------*\
| =========                 |                                                 |
| \\      /  F ield         | OpenFOAM: The Open Source CFD Toolbox           |
|  \\    /   O peration     | Version:  1.5.x                                 |
|   \\  /    A nd           | Web:      http://www.OpenFOAM.org               |
|    \\/     M anipulation  |                                                 |
\*---------------------------------------------------------------------------*/
FoamFile
{
    version     2.0;
    format      ascii;
    class       volScalarField;
    location    "0";
    object      G;
}
// * * * * * * * * * * * * * * * * * * * * * * * * * * * * * * * * * * * * * //

dimensions      [1 0 -3 0 0 0 0];

internalField   uniform 0;

boundaryField
{
    wallTube
    {
        type            MarshakRadiation;
        T               T;
        emissivity      0.8;
        value           uniform 0;
    }
    outlet
    {
        type            MarshakRadiation;
        T               T;
        emissivity      1;
        value           uniform 0;
    }
    inletPilot
    {
        type            MarshakRadiation;
        T               T;
        emissivity      1;
        value           uniform 0;
    }
    inletAir
    {
        type            MarshakRadiation;
        T               T;
        emissivity      1;
        value           uniform 0;
    }
    wallOutside
    {
        type            MarshakRadiation;
        T               T;
        emissivity      1;
        value           uniform 0;
    }
    inletCH4
    {
        type            MarshakRadiation;
        T               T;
        emissivity      1;
        value           uniform 0;
    }
    frontAndBack_pos
    {
        type            wedge;
    }
    frontAndBack_neg
    {
        type            wedge;
    }
}


// ************************************************************************* //
